REMARK SMILES CC(=O)C[C@@H](c1ccccc1)c1c(O)c2ccccc2oc1=O
REMARK SMILES IDX 5 1 4 2 2 3 1 4 3 5 6 6 7 7 11 8 8 9 10 10 9 11 12 12 13 13
REMARK SMILES IDX 22 14 15 15 21 16 23 17 20 18 16 19 19 20 17 21 18 22 14 23
REMARK H PARENT 14 24
REMARK Flexibility Score: inf
ROOT
ATOM      1  C   UNL A   1       3.199  -0.115   0.099  1.00  0.00     0.068 C 
ENDROOT
BRANCH   1   2
ATOM      2  C   UNL A   1       1.769  -0.634  -0.185  1.00  0.00     0.088 C 
BRANCH   2   3
ATOM      3  C   UNL A   1       0.719   0.380   0.204  1.00  0.00     0.130 C 
ATOM      4  C   UNL A   1      -0.321   0.071   1.241  1.00  0.00     0.087 C 
ATOM      5  O   UNL A   1       0.710   1.476  -0.335  1.00  0.00    -0.300 OA
ENDBRANCH   2   3
ENDBRANCH   1   2
BRANCH   1   6
ATOM      6  C   UNL A   1       3.411   0.266   1.566  1.00  0.00    -0.040 A 
ATOM      7  C   UNL A   1       3.204  -0.634   2.633  1.00  0.00     0.004 A 
ATOM      8  C   UNL A   1       3.811   1.583   1.875  1.00  0.00     0.004 A 
ATOM      9  C   UNL A   1       3.403  -0.230   3.957  1.00  0.00     0.000 A 
ATOM     10  C   UNL A   1       4.010   1.980   3.200  1.00  0.00     0.000 A 
ATOM     11  C   UNL A   1       3.808   1.074   4.240  1.00  0.00     0.000 A 
ENDBRANCH   1   6
BRANCH   1  12
ATOM     12  C   UNL A   1       4.303  -1.055  -0.440  1.00  0.00     0.088 A 
ATOM     13  C   UNL A   1       5.312  -0.589  -1.345  1.00  0.00     0.137 A 
ATOM     14  C   UNL A   1       4.363  -2.430  -0.075  1.00  0.00     0.343 A 
ATOM     15  C   UNL A   1       6.287  -1.486  -1.820  1.00  0.00     0.060 A 
ATOM     16  O   UNL A   1       5.308  -3.228  -0.553  1.00  0.00    -0.422 OA
ATOM     17  O   UNL A   1       3.537  -2.921   0.667  1.00  0.00    -0.246 OA
ATOM     18  C   UNL A   1       6.248  -2.825  -1.389  1.00  0.00     0.142 A 
ATOM     19  C   UNL A   1       7.303  -1.083  -2.711  1.00  0.00     0.016 A 
ATOM     20  C   UNL A   1       7.205  -3.740  -1.841  1.00  0.00     0.048 A 
ATOM     21  C   UNL A   1       8.255  -2.004  -3.159  1.00  0.00     0.001 A 
ATOM     22  C   UNL A   1       8.206  -3.330  -2.725  1.00  0.00     0.004 A 
BRANCH  13  23
ATOM     23  O   UNL A   1       5.399   0.696  -1.772  1.00  0.00    -0.507 OA
ATOM     24  H   UNL A   1       4.857   1.445  -1.507  1.00  0.00     0.293 HD
ENDBRANCH  13  23
ENDBRANCH   1  12
TORSDOF 5
