SWF
 OpenBabel12162412263D

 39 41  0  0  1  0  0  0  0  0999 V2000
   -0.3211    0.0711    1.2410 C   0  0  0  0  0  0  0  0  0  0  0  0
    0.7185    0.3800    0.2042 C   0  0  0  0  0  0  0  0  0  0  0  0
    0.7095    1.4762   -0.3353 O   0  0  0  0  0  0  0  0  0  0  0  0
    1.7690   -0.6343   -0.1846 C   0  0  0  0  0  0  0  0  0  0  0  0
    3.1993   -0.1151    0.0991 C   0  0  3  0  0  0  0  0  0  0  0  0
    3.4107    0.2656    1.5661 C   0  0  0  0  0  0  0  0  0  0  0  0
    3.2040   -0.6345    2.6330 C   0  0  0  0  0  0  0  0  0  0  0  0
    3.4032   -0.2302    3.9567 C   0  0  0  0  0  0  0  0  0  0  0  0
    3.8083    1.0739    4.2400 C   0  0  0  0  0  0  0  0  0  0  0  0
    4.0102    1.9804    3.1998 C   0  0  0  0  0  0  0  0  0  0  0  0
    3.8107    1.5831    1.8749 C   0  0  0  0  0  0  0  0  0  0  0  0
    4.3033   -1.0549   -0.4400 C   0  0  0  0  0  0  0  0  0  0  0  0
    5.3123   -0.5886   -1.3450 C   0  0  0  0  0  0  0  0  0  0  0  0
    5.3991    0.6963   -1.7725 O   0  0  0  0  0  0  0  0  0  0  0  0
    6.2870   -1.4865   -1.8196 C   0  0  0  0  0  0  0  0  0  0  0  0
    6.2481   -2.8246   -1.3886 C   0  0  0  0  0  0  0  0  0  0  0  0
    5.3075   -3.2283   -0.5532 O   0  0  0  0  0  0  0  0  0  0  0  0
    4.3628   -2.4298   -0.0754 C   0  0  0  0  0  0  0  0  0  0  0  0
    3.5369   -2.9208    0.6669 O   0  0  0  0  0  0  0  0  0  0  0  0
    7.2052   -3.7402   -1.8415 C   0  0  0  0  0  0  0  0  0  0  0  0
    8.2062   -3.3303   -2.7248 C   0  0  0  0  0  0  0  0  0  0  0  0
    8.2549   -2.0041   -3.1585 C   0  0  0  0  0  0  0  0  0  0  0  0
    7.3030   -1.0832   -2.7108 C   0  0  0  0  0  0  0  0  0  0  0  0
   -0.2348    0.7960    2.0774 H   0  0  0  0  0  0  0  0  0  0  0  0
   -0.1978   -0.9533    1.6498 H   0  0  0  0  0  0  0  0  0  0  0  0
   -1.3319    0.1536    0.7896 H   0  0  0  0  0  0  0  0  0  0  0  0
    1.6634   -0.8442   -1.2712 H   0  0  0  0  0  0  0  0  0  0  0  0
    1.5822   -1.5798    0.3592 H   0  0  0  0  0  0  0  0  0  0  0  0
    3.2486    0.8228   -0.4689 H   0  0  0  0  0  0  0  0  0  0  0  0
    2.8717   -1.6426    2.4690 H   0  0  0  0  0  0  0  0  0  0  0  0
    3.2379   -0.9302    4.7656 H   0  0  0  0  0  0  0  0  0  0  0  0
    3.9609    1.3833    5.2659 H   0  0  0  0  0  0  0  0  0  0  0  0
    4.3208    2.9937    3.4195 H   0  0  0  0  0  0  0  0  0  0  0  0
    3.9748    2.3093    1.0885 H   0  0  0  0  0  0  0  0  0  0  0  0
    4.8572    1.4453   -1.5069 H   0  0  0  0  0  0  0  0  0  0  0  0
    7.1728   -4.7700   -1.5084 H   0  0  0  0  0  0  0  0  0  0  0  0
    8.9446   -4.0409   -3.0731 H   0  0  0  0  0  0  0  0  0  0  0  0
    9.0318   -1.6885   -3.8430 H   0  0  0  0  0  0  0  0  0  0  0  0
    7.3665   -0.0616   -3.0642 H   0  0  0  0  0  0  0  0  0  0  0  0
  1  2  1  0  0  0  0
  1 24  1  0  0  0  0
  1 25  1  0  0  0  0
  1 26  1  0  0  0  0
  2  3  2  0  0  0  0
  2  4  1  0  0  0  0
  4  5  1  0  0  0  0
  4 27  1  0  0  0  0
  4 28  1  0  0  0  0
  5  6  1  0  0  0  0
  5 12  1  0  0  0  0
  5 29  1  0  0  0  0
  6  7  2  0  0  0  0
  6 11  1  0  0  0  0
  7  8  1  0  0  0  0
  7 30  1  0  0  0  0
  8  9  2  0  0  0  0
  8 31  1  0  0  0  0
  9 10  1  0  0  0  0
  9 32  1  0  0  0  0
 10 11  2  0  0  0  0
 10 33  1  0  0  0  0
 11 34  1  0  0  0  0
 12 13  2  0  0  0  0
 12 18  1  0  0  0  0
 13 14  1  0  0  0  0
 13 15  1  0  0  0  0
 14 35  1  0  0  0  0
 15 16  2  0  0  0  0
 15 23  1  0  0  0  0
 16 17  1  0  0  0  0
 16 20  1  0  0  0  0
 17 18  1  0  0  0  0
 18 19  2  0  0  0  0
 20 21  2  0  0  0  0
 20 36  1  0  0  0  0
 21 22  1  0  0  0  0
 21 37  1  0  0  0  0
 22 23  2  0  0  0  0
 22 38  1  0  0  0  0
 23 39  1  0  0  0  0
M  END
>  <Energy>
236.321

$$$$
